src/applications/development/wind_dsa/texas2000_hr_4882_mod_33.raw
0,   100.00, 33, 0, 0, 60.00     / PSS(R)E 33 RAW created by rawd33  THU, JUL 30 2020  17:40
THIS IS A SYNTHETIC POWER SYSTEM MODEL THAT DOES NOT REPRESE
DATA RESEARCH PROJECT AND CONTAINS NO CEII.
  1001,'ODESSA 2 0  ', 115.0000,1,   1,   9,   1,0.99817, -57.4818,1.10000,0.90000,1.10000,0.90000
  1002,'PRESIDIO 2 0', 115.0000,1,   1,   9,   1,1.02612, -53.0575,1.10000,0.90000,1.10000,0.90000
  1003,'O DONNELL ~1', 115.0000,1,   1,   9,   1,1.01835, -61.1583,1.10000,0.90000,1.10000,0.90000
  1004,'O DONNELL ~2', 230.0000,2,   1,   9,   1,1.02381, -62.2411,1.10000,0.90000,1.10000,0.90000
  1005,'BIG SPRING~8', 115.0000,1,   1,   9,   1,1.01741, -51.0360,1.10000,0.90000,1.10000,0.90000
  1006,'BIG SPRING~9',  13.8000,1,   1,   9,   1,1.01253, -50.1012,1.10000,0.90000,1.10000,0.90000
  1007,'VAN HORN 0  ', 115.0000,1,   1,   9,   1,1.02862, -51.6063,1.10000,0.90000,1.10000,0.90000
  1008,'IRAAN 2 0   ', 115.0000,1,   1,   9,   1,1.01653, -52.2614,1.10000,0.90000,1.10000,0.90000
  1009,'IRAAN 2 1   ',  13.8000,1,   1,   9,   1,1.00630, -50.6448,1.10000,0.90000,1.10000,0.90000
  1010,'PRESIDIO 1 0', 115.0000,1,   1,   9,   1,1.02903, -52.5915,1.10000,0.90000,1.10000,0.90000
  1011,'PRESIDIO 1 1',  22.0000,1,   1,   9,   1,1.02972, -52.1977,1.10000,0.90000,1.10000,0.90000
  1012,'SANDERSON 0 ', 115.0000,1,   1,   9,   1,1.02568, -65.4437,1.10000,0.90000,1.10000,0.90000
  1013,'MONAHANS 2 0', 115.0000,1,   1,   9,   1,0.99761, -45.3629,1.10000,0.90000,1.10000,0.90000
  1014,'GRANDFALLS 0', 115.0000,1,   1,   9,   1,1.00443, -46.1958,1.10000,0.90000,1.10000,0.90000
  1015,'MARFA 0     ', 115.0000,1,   1,   9,   1,1.03204, -52.7124,1.10000,0.90000,1.10000,0.90000
  1016,'GARDEN CIT~1', 115.0000,1,   1,   9,   1,1.02340, -52.6615,1.10000,0.90000,1.10000,0.90000
  1017,'ODESSA 4 0  ', 115.0000,1,   1,   9,   1,0.98545, -55.1305,1.10000,0.90000,1.10000,0.90000
  1018,'NOTREES 0   ', 115.0000,1,   1,   9,   1,0.98575, -55.2426,1.10000,0.90000,1.10000,0.90000
  1019,'MIDLAND 4 0 ', 115.0000,1,   1,   9,   1,1.01708, -57.4326,1.10000,0.90000,1.10000,0.90000
  1020,'BIG SPRING~1', 115.0000,1,   1,   9,   1,1.03000, -55.2751,1.10000,0.90000,1.10000,0.90000
  1021,'BIG SPRING~2',  13.8000,2,   1,   9,   1,1.00851, -52.1059,1.10000,0.90000,1.10000,0.90000
  1022,'O DONNELL ~3', 115.0000,1,   1,   9,   1,1.02034, -60.9249,1.10000,0.90000,1.10000,0.90000
  1023,'O DONNELL ~4',  13.8000,2,   1,   9,   1,1.01000, -56.6372,1.10000,0.90000,1.10000,0.90000
  1024,'ODESSA 6 0  ', 115.0000,1,   1,   9,   1,0.98571, -55.3168,1.10000,0.90000,1.10000,0.90000
  1025,'BIG SPRIN~14', 115.0000,1,   1,   9,   1,1.02365, -53.3773,1.10000,0.90000,1.10000,0.90000
  1026,'BIG SPRIN~15',  13.8000,2,   1,   9,   1,1.00454, -49.9852,1.10000,0.90000,1.10000,0.90000
  1027,'MIDLAND 2 0 ', 115.0000,1,   1,   9,   1,1.02324, -59.3278,1.10000,0.90000,1.10000,0.90000
  1028,'COAHOMA 0   ', 115.0000,1,   1,   9,   1,1.02531, -62.0776,1.10000,0.90000,1.10000,0.90000
  1029,'MIDLAND 3 0 ', 115.0000,1,   1,   9,   1,1.01174, -58.1341,1.10000,0.90000,1.10000,0.90000
  1030,'ALPINE 0    ', 115.0000,1,   1,   9,   1,1.02044, -52.2618,1.10000,0.90000,1.10000,0.90000
  1031,'FORT DAVIS 0', 115.0000,1,   1,   9,   1,1.01229, -49.1110,1.10000,0.90000,1.10000,0.90000
  1032,'MCCAMEY 1 0 ', 115.0000,1,   1,   9,   1,1.00344, -52.3159,1.10000,0.90000,1.10000,0.90000
  1033,'MCCAMEY 1 1 ', 230.0000,2,   1,   9,   1,1.00008, -53.5488,1.10000,0.90000,1.10000,0.90000
  1034,'BIG SPRING~6', 115.0000,1,   1,   9,   1,1.01221, -50.4082,1.10000,0.90000,1.10000,0.90000
  1035,'BIG SPRING~7',  13.8000,2,   1,   9,   1,1.00225, -48.8108,1.10000,0.90000,1.10000,0.90000
  1036,'CRANE 0     ', 115.0000,1,   1,   9,   1,0.99902, -52.9708,1.10000,0.90000,1.10000,0.90000
  1037,'ODESSA 5 0  ', 115.0000,1,   1,   9,   1,0.98462, -56.7041,1.10000,0.90000,1.10000,0.90000
  1038,'FORT STOCK~1', 115.0000,1,   1,   9,   1,1.01447, -49.8530,1.10000,0.90000,1.10000,0.90000
  1039,'FORT STOCK~2',  22.0000,2,   1,   9,   1,1.00000, -47.2389,1.10000,0.90000,1.10000,0.90000
  1040,'ANDREWS 0   ', 115.0000,1,   1,   9,   1,0.99315, -56.8146,1.10000,0.90000,1.10000,0.90000
  1041,'FORSAN 0    ', 115.0000,1,   1,   9,   1,1.01122, -49.7079,1.10000,0.90000,1.10000,0.90000
  1042,'FORSAN 1    ',  13.8000,2,   1,   9,   1,1.00000, -45.9681,1.10000,0.90000,1.10000,0.90000
  1043,'FORSAN 2    ',  13.8000,1,   1,   9,   1,1.00061, -48.1434,1.10000,0.90000,1.10000,0.90000
  1044,'BIG LAKE 0  ', 115.0000,1,   1,   9,   1,1.02161, -64.6009,1.10000,0.90000,1.10000,0.90000
  1045,'MIDLAND 5 0 ', 115.0000,1,   1,   9,   1,0.99798, -58.9701,1.10000,0.90000,1.10000,0.90000
  1046,'OZONA 0     ', 115.0000,1,   1,   9,   1,1.02999, -63.4319,1.10000,0.90000,1.10000,0.90000
  1047,'MONAHANS 1 0', 115.0000,1,   1,   9,   1,0.99578, -42.7425,1.10000,0.90000,1.10000,0.90000
  1048,'MONAHANS 1 1',  18.0000,2,   1,   9,   1,1.00000, -33.8722,1.10000,0.90000,1.10000,0.90000
  1049,'MONAHANS 1 2',  18.0000,2,   1,   9,   1,1.00000, -26.7092,1.10000,0.90000,1.10000,0.90000
  1050,'MONAHANS 1 3',  18.0000,2,   1,   9,   1,0.99578, -42.7425,1.10000,0.90000,1.10000,0.90000
  1051,'MONAHANS 1 4',  18.0000,2,   1,   9,   1,0.99578, -42.7425,1.10000,0.90000,1.10000,0.90000
  1052,'MONAHANS 1 5',  18.0000,2,   1,   9,   1,0.99578, -42.7425,1.10000,0.90000,1.10000,0.90000
  1053,'MONAHANS 1 6', 230.0000,2,   1,   9,   1,1.00407, -48.1617,1.10000,0.90000,1.10000,0.90000
  1054,'STANTON 0   ', 115.0000,1,   1,   9,   1,1.02017, -57.3625,1.10000,0.90000,1.10000,0.90000
  1055,'ODONNELL 0  ', 115.0000,1,   1,   9,   1,1.01367, -61.1799,1.10000,0.90000,1.10000,0.90000
  1056,'LENORAH 0   ', 115.0000,1,   1,   9,   1,1.02999, -55.1226,1.10000,0.90000,1.10000,0.90000
  1057,'LENORAH 1   ',  18.0000,2,   1,   9,   1,1.00646, -50.8836,1.10000,0.90000,1.10000,0.90000
  1058,'IRAAN 3 0   ', 115.0000,1,   1,   9,   1,1.02322, -54.8143,1.10000,0.90000,1.10000,0.90000
  1059,'IRAAN 3 1   ',  22.0000,2,   1,   9,   1,1.02322, -54.8143,1.10000,0.90000,1.10000,0.90000
  1060,'IRAAN 3 2   ',  22.0000,2,   1,   9,   1,1.02322, -54.8143,1.10000,0.90000,1.10000,0.90000
  1061,'BIG SPRIN~10', 115.0000,1,   1,   9,   1,1.02078, -50.8581,1.10000,0.90000,1.10000,0.90000
  1062,'BIG SPRIN~11',  13.8000,1,   1,   9,   1,1.02090, -50.7911,1.10000,0.90000,1.10000,0.90000
  1063,'BIG SPRIN~12',  13.8000,2,   1,   9,   1,1.01815, -42.5796,1.10000,0.90000,1.10000,0.90000
  1064,'ODESSA 3 0  ', 115.0000,1,   1,   9,   1,0.99193, -58.7472,1.10000,0.90000,1.10000,0.90000
  1065,'BIG SPRING~4', 115.0000,1,   1,   9,   1,1.01259, -49.9408,1.10000,0.90000,1.10000,0.90000
  1066,'BIG SPRING~5',  13.8000,2,   1,   9,   1,1.00000, -46.3086,1.10000,0.90000,1.10000,0.90000
  1067,'BIG SPRIN~13', 115.0000,1,   1,   9,   1,1.01121, -50.3444,1.10000,0.90000,1.10000,0.90000
  1068,'MIDLAND 1 0 ', 115.0000,1,   1,   9,   1,0.99146, -55.2382,1.10000,0.90000,1.10000,0.90000
  1069,'IRAAN 1 0   ', 115.0000,1,   1,   9,   1,1.02236, -52.8587,1.10000,0.90000,1.10000,0.90000
  1070,'IRAAN 1 1   ',  13.8000,2,   1,   9,   1,1.04000, -50.7035,1.10000,0.90000,1.10000,0.90000
  1071,'ODESSA 1 0  ', 115.0000,1,   1,   9,   1,1.00466, -56.3518,1.10000,0.90000,1.10000,0.90000
  1072,'ODESSA 1 1  ',  18.0000,3,   1,   9,   1,1.01000, -48.4237,1.10000,0.90000,1.10000,0.90000
  1073,'ODESSA 1 2  ',  18.0000,2,   1,   9,   1,1.01000, -48.1508,1.10000,0.90000,1.10000,0.90000
  1074,'ODESSA 1 3  ',  18.0000,2,   1,   9,   1,1.01000, -48.5134,1.10000,0.90000,1.10000,0.90000
  1075,'ODESSA 1 4  ',  18.0000,2,   1,   9,   1,1.01000, -50.0830,1.10000,0.90000,1.10000,0.90000
  1076,'ODESSA 1 5  ',  18.0000,2,   1,   9,   1,1.01000, -53.2523,1.10000,0.90000,1.10000,0.90000
  1077,'ODESSA 1 6  ',  18.0000,2,   1,   9,   1,1.01000, -48.7705,1.10000,0.90000,1.10000,0.90000
  1078,'ODESSA 1 7  ',  18.0000,2,   1,   9,   1,1.00466, -56.3518,1.10000,0.90000,1.10000,0.90000
  1079,'ODESSA 1 8  ', 500.0000,2,   1,   9,   1,1.04087, -68.1220,1.10000,0.90000,1.10000,0.90000
  1080,'ODESSA 1 9  ',  18.0000,2,   1,   9,   1,1.00466, -56.3518,1.10000,0.90000,1.10000,0.90000
  1081,'ODESSA 1 10 ', 230.0000,2,   1,   9,   1,1.01000, -51.7891,1.10000,0.90000,1.10000,0.90000
  1082,'FORT STOCK~3', 115.0000,2,   1,   9,   1,1.01401, -49.8191,1.10000,0.90000,1.10000,0.90000
  1083,'FORT STOCK~4', 115.0000,1,   1,   9,   1,1.01802, -50.0850,1.10000,0.90000,1.10000,0.90000
  1084,'BIG SPRING~3', 115.0000,2,   1,   9,   1,1.03384, -56.1278,1.10000,0.90000,1.10000,0.90000
  1085,'KERMIT 0    ', 115.0000,1,   1,   9,   1,0.99489, -46.8930,1.10000,0.90000,1.10000,0.90000
  1086,'PECOS 0     ', 115.0000,1,   1,   9,   1,1.00303, -48.3739,1.10000,0.90000,1.10000,0.90000
  1087,'SHEFFIELD 0 ', 115.0000,1,   1,   9,   1,1.02998, -58.5682,1.10000,0.90000,1.10000,0.90000
  1088,'MCCAMEY 2 0 ', 115.0000,1,   1,   9,   1,0.99939, -52.8155,1.10000,0.90000,1.10000,0.90000
  1089,'LAMESA 0    ', 115.0000,1,   1,   9,   1,1.00029, -61.0135,1.10000,0.90000,1.10000,0.90000
  1090,'GOLDSMITH 0 ', 115.0000,1,   1,   9,   1,1.00525, -53.3369,1.10000,0.90000,1.10000,0.90000
  1091,'RALLS 2 0   ', 161.0000,1,   1,   9,   1,1.03312, -73.0852,1.10000,0.90000,1.10000,0.90000
  2001,'PARIS 3 0   ', 161.0000,1,   2,  11,   1,1.01072, -77.9761,1.10000,0.90000,1.10000,0.90000
  2002,'SAVOY 0     ', 500.0000,1,   2,  11,   1,1.02448, -75.8411,1.10000,0.90000,1.10000,0.90000
  2003,'SAVOY 1     ', 161.0000,1,   2,  11,   1,1.02431, -77.8678,1.10000,0.90000,1.10000,0.90000
  2004,'SAVOY 2     ',  13.8000,2,   2,  11,   1,1.02000, -74.8924,1.10000,0.90000,1.10000,0.90000
  2005,'SAVOY 3     ',  13.8000,2,   2,  11,   1,1.02000, -74.7313,1.10000,0.90000,1.10000,0.90000
  2006,'SAVOY 4     ',  13.8000,2,   2,  11,   1,1.02000, -74.1109,1.10000,0.90000,1.10000,0.90000
  2007,'HONEY GROV~1', 161.0000,1,   2,  11,   1,1.01644, -77.2977,1.10000,0.90000,1.10000,0.90000
  2008,'MEMPHIS 0   ', 161.0000,1,   2,  10,   1,1.01149, -76.7487,1.10000,0.90000,1.10000,0.90000
  2009,'IOWA PARK 0 ', 161.0000,1,   2,  11,   1,1.03000, -76.5319,1.10000,0.90000,1.10000,0.90000
  2010,'VERNON 2 0  ', 161.0000,1,   2,  10,   1,1.03000, -76.5021,1.10000,0.90000,1.10000,0.90000
  2011,'PANHANDLE ~2', 500.0000,1,   2,  10,   1,1.03789, -73.1996,1.10000,0.90000,1.10000,0.90000
  2012,'PANHANDLE ~3', 161.0000,1,   2,  10,   1,1.02723, -73.7185,1.10000,0.90000,1.10000,0.90000
  2013,'PANHANDLE ~4',  18.0000,1,   2,  10,   1,1.02982, -72.9903,1.10000,0.90000,1.10000,0.90000
  2014,'CHILDRESS 0 ', 161.0000,1,   2,  10,   1,1.01034, -77.0509,1.10000,0.90000,1.10000,0.90000
  2015,'FORESTBURG 0', 161.0000,1,   2,  11,   1,1.01916, -82.4300,1.10000,0.90000,1.10000,0.90000
  2016,'SHERMAN 3 0 ', 161.0000,1,   2,  11,   1,1.02285, -81.9806,1.10000,0.90000,1.10000,0.90000
  2017,'PANHANDLE ~7', 500.0000,1,   2,  10,   1,1.03170, -72.3018,1.10000,0.90000,1.10000,0.90000
  2018,'PANHANDLE ~8', 161.0000,1,   2,  10,   1,1.03212, -72.7920,1.10000,0.90000,1.10000,0.90000
  2019,'PANHANDLE ~9',  20.0000,2,   2,  10,   1,1.03170, -72.3018,1.10000,0.90000,1.10000,0.90000
  2020,'WICHITA F~12', 161.0000,1,   2,  11,   1,1.01643, -74.6709,1.10000,0.90000,1.10000,0.90000
  2021,'PARIS 2 0   ', 500.0000,1,   2,  11,   1,1.02530, -74.8916,1.10000,0.90000,1.10000,0.90000
  2022,'PARIS 2 1   ', 161.0000,1,   2,  11,   1,1.01793, -76.8604,1.10000,0.90000,1.10000,0.90000
  2023,'PARIS 2 2   ',  13.8000,2,   2,  11,   1,1.02530, -74.8916,1.10000,0.90000,1.10000,0.90000
  2024,'PARIS 2 3   ',  13.8000,2,   2,  11,   1,1.02099, -73.6047,1.10000,0.90000,1.10000,0.90000
  2025,'WICHITA F~10', 161.0000,1,   2,  11,   1,1.01439, -74.1681,1.10000,0.90000,1.10000,0.90000
  2026,'WHEELER 0   ', 161.0000,1,   2,  10,   1,1.02622, -74.0929,1.10000,0.90000,1.10000,0.90000
  2027,'DEPORT 0    ', 161.0000,1,   2,  11,   1,1.00894, -78.5106,1.10000,0.90000,1.10000,0.90000
  2028,'WICHITA FA~9', 161.0000,1,   2,  11,   1,1.01643, -76.3098,1.10000,0.90000,1.10000,0.90000
  2029,'SILVERTON 0 ', 161.0000,1,   2,  10,   1,1.01932, -75.9338,1.10000,0.90000,1.10000,0.90000
  2030,'BONHAM 0    ', 161.0000,1,   2,  11,   1,1.00160, -80.4533,1.10000,0.90000,1.10000,0.90000
  2031,'MATADOR 0   ', 161.0000,1,   2,  10,   1,1.03337, -71.5422,1.10000,0.90000,1.10000,0.90000
  2032,'ARTHUR CIT~1', 161.0000,1,   2,  11,   1,1.01802, -76.8877,1.10000,0.90000,1.10000,0.90000
  2033,'LEONARD 0   ', 161.0000,1,   2,  11,   1,0.98836, -82.8787,1.10000,0.90000,1.10000,0.90000
  2034,'GORDONVILL~1', 161.0000,1,   2,  11,   1,1.02426, -81.5910,1.10000,0.90000,1.10000,0.90000
  2035,'KNOX CITY 0 ', 161.0000,1,   2,  10,   1,1.02991, -71.9854,1.10000,0.90000,1.10000,0.90000
  2036,'WICHITA F~13', 161.0000,1,   2,  11,   1,1.01690, -74.7841,1.10000,0.90000,1.10000,0.90000
  2037,'LINDSAY 0   ', 161.0000,1,   2,  11,   1,1.02776, -82.2711,1.10000,0.90000,1.10000,0.90000
  2038,'ECTOR 0     ', 161.0000,1,   2,  11,   1,1.01968, -78.6927,1.10000,0.90000,1.10000,0.90000
  2039,'SUNSET 0    ', 161.0000,1,   2,  11,   1,1.00370, -81.7902,1.10000,0.90000,1.10000,0.90000
  2040,'CLARKSVILL~1', 161.0000,1,   2,  11,   1,1.01596, -77.4614,1.10000,0.90000,1.10000,0.90000
  2041,'PANHANDLE ~5', 161.0000,1,   2,  10,   1,1.02137, -73.6062,1.10000,0.90000,1.10000,0.90000
  2042,'PANHANDLE ~6',  18.0000,1,   2,  10,   1,1.01254, -73.4813,1.10000,0.90000,1.10000,0.90000
  2043,'SADLER 0    ', 161.0000,1,   2,  11,   1,1.02362, -81.7697,1.10000,0.90000,1.10000,0.90000
  2044,'WHITESBORO 0', 161.0000,1,   2,  11,   1,1.02569, -80.8357,1.10000,0.90000,1.10000,0.90000
  2045,'SHEPPARD A~1', 161.0000,1,   2,  11,   1,1.01590, -75.0598,1.10000,0.90000,1.10000,0.90000
  2046,'POTTSBORO 0 ', 161.0000,1,   2,  11,   1,1.02511, -81.3631,1.10000,0.90000,1.10000,0.90000
  2047,'BELLS 0     ', 161.0000,1,   2,  11,   1,1.02441, -78.4852,1.10000,0.90000,1.10000,0.90000
  2048,'CROSBYTON 0 ', 161.0000,1,   2,  10,   1,1.03457, -73.3451,1.10000,0.90000,1.10000,0.90000
  2049,'ELECTRA 0   ', 161.0000,1,   2,  10,   1,1.02677, -76.4848,1.10000,0.90000,1.10000,0.90000
  2050,'PATTONVILL~1', 161.0000,1,   2,  11,   1,0.98435, -82.2743,1.10000,0.90000,1.10000,0.90000
  2051,'HENRIETTA 0 ', 161.0000,1,   2,  11,   1,1.01319, -79.2911,1.10000,0.90000,1.10000,0.90000
  2052,'PANHANDLE~13', 161.0000,1,   2,  10,   1,1.01332, -76.0126,1.10000,0.90000,1.10000,0.90000
  2053,'BOWIE 0     ', 161.0000,1,   2,  11,   1,1.00318, -79.5735,1.10000,0.90000,1.10000,0.90000
  2054,'WICHITA FA~1', 500.0000,1,   2,  11,   1,1.01926, -73.1718,1.10000,0.90000,1.10000,0.90000
  2055,'WICHITA FA~2', 161.0000,1,   2,  11,   1,1.01808, -73.9911,1.10000,0.90000,1.10000,0.90000
  2056,'WICHITA FA~3',  18.0000,2,   2,  11,   1,1.01926, -73.1718,1.10000,0.90000,1.10000,0.90000
  2057,'WICHITA FA~4',  18.0000,3,   2,  11,   1,0.99000, -71.0735,1.10000,0.90000,1.10000,0.90000
  2058,'WHITE DEER 0', 161.0000,1,   2,  10,   1,1.01954, -73.6288,1.10000,0.90000,1.10000,0.90000
  2059,'WHITE DEER 1',  13.8000,1,   2,  10,   1,1.00805, -73.5526,1.10000,0.90000,1.10000,0.90000
  2060,'ROXTON 0    ', 161.0000,1,   2,  11,   1,0.98992, -80.8935,1.10000,0.90000,1.10000,0.90000
  2061,'VERNON 1 0  ', 161.0000,1,   2,  10,   1,1.02537, -76.1231,1.10000,0.90000,1.10000,0.90000
  2062,'VERNON 1 1  ',  18.0000,1,   2,  10,   1,1.01996, -75.7315,1.10000,0.90000,1.10000,0.90000
  2063,'DENISON 2 0 ', 161.0000,1,   2,  11,   1,1.02694, -80.9712,1.10000,0.90000,1.10000,0.90000
  2064,'SUMNER 0    ', 161.0000,1,   2,  11,   1,1.00386, -78.7842,1.10000,0.90000,1.10000,0.90000
  2065,'GAINESVILL~1', 161.0000,1,   2,  11,   1,1.03000, -82.4863,1.10000,0.90000,1.10000,0.90000
  2066,'ASPERMONT 0 ', 161.0000,1,   2,  10,   1,1.02972, -69.6121,1.10000,0.90000,1.10000,0.90000
  2067,'WICHITA F~11', 161.0000,1,   2,  11,   1,1.01179, -74.1488,1.10000,0.90000,1.10000,0.90000
  2068,'WINDTHORST 0', 161.0000,1,   2,  11,   1,1.01107, -72.8260,1.10000,0.90000,1.10000,0.90000
  2069,'HOWE 0      ', 161.0000,1,   2,  11,   1,1.03000, -81.3891,1.10000,0.90000,1.10000,0.90000
  2070,'ARCHER 2 0  ', 161.0000,1,   2,  11,   1,1.01192, -72.4050,1.10000,0.90000,1.10000,0.90000
  2071,'ARCHER 2 1  ',  18.0000,2,   2,  11,   1,1.00000, -71.3169,1.10000,0.90000,1.10000,0.90000
  2072,'COLLINSVIL~1', 161.0000,1,   2,  11,   1,1.02790, -80.0233,1.10000,0.90000,1.10000,0.90000
  2073,'JAYTON 0    ', 161.0000,1,   2,  10,   1,1.03043, -67.5453,1.10000,0.90000,1.10000,0.90000
  2074,'JAYTON 1    ', 115.0000,1,   2,  10,   1,1.02273, -66.6557,1.10000,0.90000,1.10000,0.90000
  2075,'JAYTON 2    ', 115.0000,1,   2,  10,   1,1.02273, -66.6557,1.10000,0.90000,1.10000,0.90000
  2076,'JAYTON 3    ',  24.0000,1,   2,  10,   1,1.03533, -67.1257,1.10000,0.90000,1.10000,0.90000
  2077,'MUENSTER 1 0', 161.0000,1,   2,  11,   1,1.02726, -81.6874,1.10000,0.90000,1.10000,0.90000
  2078,'MUENSTER 1 1',  13.8000,1,   2,  11,   1,1.01994, -80.7037,1.10000,0.90000,1.10000,0.90000
  2079,'PADUCAH 0   ', 161.0000,1,   2,  10,   1,1.03310, -75.3567,1.10000,0.90000,1.10000,0.90000
  2080,'NOCONA 0    ', 161.0000,1,   2,  11,   1,1.01403, -80.6007,1.10000,0.90000,1.10000,0.90000
  2081,'DODD CITY 0 ', 161.0000,1,   2,  11,   1,1.01156, -80.1671,1.10000,0.90000,1.10000,0.90000
  2082,'WICHITA FA~5', 161.0000,1,   2,  11,   1,1.01781, -75.4391,1.10000,0.90000,1.10000,0.90000
  2083,'WICHITA FA~6',  20.0000,2,   2,  11,   1,1.01781, -75.4391,1.10000,0.90000,1.10000,0.90000
  2084,'WICHITA FA~7',  20.0000,2,   2,  11,   1,1.01781, -75.4391,1.10000,0.90000,1.10000,0.90000
  2085,'WICHITA FA~8',  20.0000,2,   2,  11,   1,1.01781, -75.4391,1.10000,0.90000,1.10000,0.90000
  2086,'MONTAGUE 0  ', 161.0000,1,   2,  11,   1,1.00792, -81.3583,1.10000,0.90000,1.10000,0.90000
  2087,'SPUR 0      ', 161.0000,1,   2,  10,   1,1.03164, -69.6352,1.10000,0.90000,1.10000,0.90000
  2088,'ARCHER 1 0  ', 161.0000,1,   2,  11,   1,1.01105, -72.6257,1.10000,0.90000,1.10000,0.90000
  2089,'ARCHER 1 1  ',  24.0000,1,   2,  11,   1,0.99979, -71.5611,1.10000,0.90000,1.10000,0.90000
  2090,'ANNONA 0    ', 161.0000,1,   2,  11,   1,1.00472, -79.3923,1.10000,0.90000,1.10000,0.90000
  2091,'SEYMOUR 0   ', 161.0000,1,   2,  10,   1,1.02898, -74.7138,1.10000,0.90000,1.10000,0.90000
  2092,'DENISON 1 0 ', 161.0000,1,   2,  11,   1,1.02486, -79.7541,1.10000,0.90000,1.10000,0.90000
  2093,'PANHANDLE~10', 161.0000,1,   2,  10,   1,1.03005, -73.2894,1.10000,0.90000,1.10000,0.90000
  2094,'PANHANDLE~11',  13.8000,2,   2,  10,   1,1.03005, -73.2894,1.10000,0.90000,1.10000,0.90000
  2095,'PANHANDLE~12',  13.8000,2,   2,  10,   1,1.03005, -73.2894,1.10000,0.90000,1.10000,0.90000
  2096,'RALLS 1 0   ', 500.0000,1,   2,  10,   1,1.03000, -69.7869,1.10000,0.90000,1.10000,0.90000
  2097,'RALLS 1 1   ', 230.0000,1,   2,  10,   1,1.02964, -69.3342,1.10000,0.90000,1.10000,0.90000
  2098,'RALLS 1 2   ', 161.0000,1,   2,  10,   1,1.03428, -72.4938,1.10000,0.90000,1.10000,0.90000
  2099,'RALLS 1 3   ',  18.0000,1,   2,  10,   1,1.02952, -69.7444,1.10000,0.90000,1.10000,0.90000
  2100,'RALLS 1 4   ',  18.0000,2,   2,  10,   1,1.02120, -69.0003,1.10000,0.90000,1.10000,0.90000
  2101,'SHERMAN 1 0 ', 500.0000,1,   2,  11,   1,1.02498, -76.4799,1.10000,0.90000,1.10000,0.90000
  2102,'SHERMAN 1 1 ', 161.0000,1,   2,  11,   1,1.02614, -77.8046,1.10000,0.90000,1.10000,0.90000
  2103,'SHERMAN 1 2 ',  20.0000,2,   2,  11,   1,1.02144, -75.9265,1.10000,0.90000,1.10000,0.90000
  2104,'SHERMAN 1 3 ',  20.0000,2,   2,  11,   1,1.02030, -75.7547,1.10000,0.90000,1.10000,0.90000
  2105,'SHERMAN 1 4 ',  20.0000,2,   2,  11,   1,1.01765, -75.3291,1.10000,0.90000,1.10000,0.90000
  2106,'WHITEWRIGH~1', 161.0000,1,   2,  11,   1,0.99534, -82.3017,1.10000,0.90000,1.10000,0.90000
  2107,'SHERMAN 2 0 ', 161.0000,1,   2,  11,   1,1.02300, -78.4277,1.10000,0.90000,1.10000,0.90000
  2108,'ROCHESTER 0 ', 161.0000,1,   2,  10,   1,1.02637, -73.7504,1.10000,0.90000,1.10000,0.90000
  2109,'BURKBURNET~1', 161.0000,1,   2,  11,   1,1.02140, -76.7871,1.10000,0.90000,1.10000,0.90000
...
 0 /End of Bus data, Begin Load data
  1006,'1 ',1,   1,   9,   -12.434,     4.940,     0.000,     0.000,     0.000,     0.000,   1,1,0
  1009,'1 ',1,   1,   9,   -29.899,    11.880,     0.000,     0.000,     0.000,     0.000,   1,1,0
  1010,'99',1,   1,   9,    -0.000,     4.489,     0.000,     0.000,     0.000,     0.000,   1,1,0
  1011,'1 ',1,   1,   9,    -5.602,    -0.000,     0.000,     0.000,     0.000,     0.000,   1,1,0
  1012,'99',1,   1,   9,     0.006,    -9.994,     0.000,     0.000,     0.000,     0.000,   1,1,0
  1016,'99',1,   1,   9,     0.000,   -31.421,     0.000,     0.000,     0.000,     0.000,   1,1,0
  1019,'99',1,   1,   9,    -0.000,  -147.905,     0.000,     0.000,     0.000,     0.000,   1,1,0
  1020,'99',1,   1,   9,    -0.000,   -75.783,     0.000,     0.000,     0.000,     0.000,   1,1,0
  1027,'99',1,   1,   9,    -0.000,   -78.528,     0.000,     0.000,     0.000,     0.000,   1,1,0
  1029,'99',1,   1,   9,     0.000,   -40.946,     0.000,     0.000,     0.000,     0.000,   1,1,0
  1043,'1 ',1,   1,   9,   -21.311,     8.470,     0.000,     0.000,     0.000,     0.000,   1,1,0
  1046,'99',1,   1,   9,    -0.000,    -8.916,     0.000,     0.000,     0.000,     0.000,   1,1,0
  1056,'99',1,   1,   9,    -0.000,   -52.039,     0.000,     0.000,     0.000,     0.000,   1,1,0
  1062,'1 ',1,   1,   9,    -0.938,    -0.000,     0.000,     0.000,     0.000,     0.000,   1,1,0
  1081,'99',1,   1,   9,    -0.004,   -17.774,     0.000,     0.000,     0.000,     0.000,   1,1,0
  1083,'99',1,   1,   9,     0.000,   -27.106,     0.000,     0.000,     0.000,     0.000,   1,1,0
  1086,'99',1,   1,   9,    -0.000,   -30.189,     0.000,     0.000,     0.000,     0.000,   1,1,0
  1087,'99',1,   1,   9,    -0.003,    -9.900,     0.000,     0.000,     0.000,     0.000,   1,1,0
  1088,'1 ',1,   1,   9,   -27.183,     1.384,     0.000,     0.000,     0.000,     0.000,   1,1,0
  1090,'1 ',1,   1,   9,   -26.095,   -40.150,     0.000,     0.000,     0.000,     0.000,   1,1,0
  2009,'99',1,   2,  11,    -0.006,   -86.903,     0.000,     0.000,     0.000,     0.000,   1,1,0
  2010,'99',1,   2,  10,    -0.000,   -24.956,     0.000,     0.000,     0.000,     0.000,   1,1,0
  2013,'1 ',1,   2,  10,   -13.052,    28.890,     0.000,     0.000,     0.000,     0.000,   1,1,0
  2017,'98',1,   2,  10,    -0.000,   106.439,     0.000,     0.000,     0.000,     0.000,   1,1,0
  2017,'99',1,   2,  10,     0.001,   106.439,     0.000,     0.000,     0.000,     0.000,   1,1,0
  2042,'1 ',1,   2,  10,    -2.558,    11.460,     0.000,     0.000,     0.000,     0.000,   1,1,0
  2059,'1 ',1,   2,  10,    -0.741,    11.520,     0.000,     0.000,     0.000,     0.000,   1,1,0
  2062,'1 ',1,   2,  10,   -16.874,    14.054,     0.000,     0.000,     0.000,     0.000,   1,1,0
  2063,'99',1,   2,  11,    -0.000,   -42.184,     0.000,     0.000,     0.000,     0.000,   1,1,0
  2065,'99',1,   2,  11,    -0.004,   -71.171,     0.000,     0.000,     0.000,     0.000,   1,1,0
  2069,'99',1,   2,  11,    -0.006,   -60.835,     0.000,     0.000,     0.000,     0.000,   1,1,0
  2076,'1 ',1,   2,  10,   -10.873,    -6.390,     0.000,     0.000,     0.000,     0.000,   1,1,0
  2078,'1 ',1,   2,  11,   -24.888,    10.931,     0.000,     0.000,     0.000,     0.000,   1,1,0
  2089,'1 ',1,   2,  11,   -14.954,     9.252,     0.000,     0.000,     0.000,     0.000,   1,1,0
  2096,'98',1,   2,  10,     0.000,    64.891,     0.000,     0.000,     0.000,     0.000,   1,1,0
  2096,'99',1,   2,  10,    -0.001,    26.840,     0.000,     0.000,     0.000,     0.000,   1,1,0
  2099,'1 ',1,   2,  10,    -2.248,     1.440,     0.000,     0.000,     0.000,     0.000,   1,1,0
  2110,'99',1,   2,  11,    -0.002,   -38.252,     0.000,     0.000,     0.000,     0.000,   1,1,0
  2123,'1 ',1,   2,  10,    -5.839,    26.160,     0.000,     0.000,     0.000,     0.000,   1,1,0
  2127,'1 ',1,   2,  10,    -7.306,     8.948,     0.000,     0.000,     0.000,     0.000,   1,1,0
  2127,'99',1,   2,  10,     0.001,   216.207,     0.000,     0.000,     0.000,     0.000,   1,1,0
  2132,'99',1,   2,  10,    -0.001,    -8.915,     0.000,     0.000,     0.000,     0.000,   1,1,0
  3004,'1 ',1,   3,  27,   -13.594,     5.400,     0.000,     0.000,     0.000,     0.000,   1,1,0
  3013,'99',1,   3,  27,    -0.000,   -59.045,     0.000,     0.000,     0.000,     0.000,   1,1,0
  3019,'99',1,   3,  27,    -0.002,   -28.826,     0.000,     0.000,     0.000,     0.000,   1,1,0
  3023,'99',1,   3,  27,    -0.001,   -27.596,     0.000,     0.000,     0.000,     0.000,   1,1,0
  3030,'99',1,   3,  27,     0.000,   -84.254,     0.000,     0.000,     0.000,     0.000,   1,1,0
  3047,'99',1,   3,  27,    -0.000,   -51.811,     0.000,     0.000,     0.000,     0.000,   1,1,0
  3050,'99',1,   3,  28,     0.079,   -67.484,     0.000,     0.000,     0.000,     0.000,   1,1,0
  3051,'99',1,   3,  28,     0.007,   -20.390,     0.000,     0.000,     0.000,     0.000,   1,1,0
  3065,'1 ',1,   3,  27,   -29.174,    11.590,     0.000,     0.000,     0.000,     0.000,   1,1,0
  3086,'1 ',1,   3,  27,   -27.183,    10.800,     0.000,     0.000,     0.000,     0.000,   1,1,0
  3088,'99',1,   3,  27,    -0.001,    -8.474,     0.000,     0.000,     0.000,     0.000,   1,1,0
  3091,'99',1,   3,  27,    -0.001,   -46.217,     0.000,     0.000,     0.000,     0.000,   1,1,0
  3105,'1 ',1,   3,  28,   -13.719,     0.740,     0.000,     0.000,     0.000,     0.000,   1,1,0
  3112,'1 ',1,   3,  27,   -27.110,    10.770,     0.000,     0.000,     0.000,     0.000,   1,1,0
  3113,'1 ',1,   3,  27,   -27.110,    10.770,     0.000,     0.000,     0.000,     0.000,   1,1,0
  3117,'1 ',1,   3,  27,   -22.834,     8.833,     0.000,     0.000,     0.000,     0.000,   1,1,0
  3120,'1 ',1,   3,  28,   -18.565,    -0.000,     0.000,     0.000,     0.000,     0.000,   1,1,0
  3124,'99',1,   3,  28,     0.002,   -45.475,     0.000,     0.000,     0.000,     0.000,   1,1,0
  3126,'99',1,   3,  28,    -0.028,   -41.481,     0.000,     0.000,     0.000,     0.000,   1,1,0
  3142,'99',1,   3,  27,    -0.000,   -14.947,     0.000,     0.000,     0.000,     0.000,   1,1,0
  3143,'99',1,   3,  28,    -0.001,   -16.240,     0.000,     0.000,     0.000,     0.000,   1,1,0
  3146,'99',1,   3,  28,    -0.000,    -8.520,     0.000,     0.000,     0.000,     0.000,   1,1,0
  3147,'99',1,   3,  28,    -0.027,   -28.437,     0.000,     0.000,     0.000,     0.000,   1,1,0
  4005,'99',1,   4,  20,     0.165,   -72.619,     0.000,     0.000,     0.000,     0.000,   1,1,0
  4012,'99',1,   4,  19,    -0.031,   -39.287,     0.000,     0.000,     0.000,     0.000,   1,1,0
  4015,'99',1,   4,  20,     0.002,   -78.912,     0.000,     0.000,     0.000,     0.000,   1,1,0
  4037,'99',1,   4,  21,     0.000,   -67.494,     0.000,     0.000,     0.000,     0.000,   1,1,0
  4040,'99',1,   4,  19,    -0.223,  -434.359,     0.000,     0.000,     0.000,     0.000,   1,1,0
  4045,'1 ',1,   4,  19,   -28.794,    -2.817,     0.000,     0.000,     0.000,     0.000,   1,1,0
  4046,'1 ',1,   4,  19,    -8.786,    -4.351,     0.000,     0.000,     0.000,     0.000,   1,1,0
  4066,'99',1,   4,  19,    -0.036,  -113.980,     0.000,     0.000,     0.000,     0.000,   1,1,0
  4086,'99',1,   4,  19,    -0.172,   -91.320,     0.000,     0.000,     0.000,     0.000,   1,1,0
  4087,'99',1,   4,  21,    -0.006,  -110.895,     0.000,     0.000,     0.000,     0.000,   1,1,0
  4088,'99',1,   4,  19,    -0.180,  -255.606,     0.000,     0.000,     0.000,     0.000,   1,1,0
  4103,'99',1,   4,  19,    -0.003,  -106.412,     0.000,     0.000,     0.000,     0.000,   1,1,0
  4121,'99',1,   4,  19,    -0.018,   -52.913,     0.000,     0.000,     0.000,     0.000,   1,1,0
  4122,'99',1,   4,  19,    -0.013,  -154.874,     0.000,     0.000,     0.000,     0.000,   1,1,0
  4127,'99',1,   4,  21,    -0.001,   -64.136,     0.000,     0.000,     0.000,     0.000,   1,1,0
  4128,'99',1,   4,  19,     0.000,   -73.131,     0.000,     0.000,     0.000,     0.000,   1,1,0
  4130,'99',1,   4,  20,    -0.000,   -16.088,     0.000,     0.000,     0.000,     0.000,   1,1,0
  4131,'99',1,   4,  20,     0.296,  -115.573,     0.000,     0.000,     0.000,     0.000,   1,1,0
  4141,'99',1,   4,  21,    -0.003,   -49.396,     0.000,     0.000,     0.000,     0.000,   1,1,0
  4147,'99',1,   4,  20,     0.096,  -104.953,     0.000,     0.000,     0.000,     0.000,   1,1,0
  4171,'99',1,   4,  19,     0.000,  -105.631,     0.000,     0.000,     0.000,     0.000,   1,1,0
  4174,'99',1,   4,  20,    -0.024,   -75.127,     0.000,     0.000,     0.000,     0.000,   1,1,0
  4175,'99',1,   4,  20,    -0.041,   -20.000,     0.000,     0.000,     0.000,     0.000,   1,1,0
  4178,'99',1,   4,  21,    -0.000,   -46.840,     0.000,     0.000,     0.000,     0.000,   1,1,0
  4185,'99',1,   4,  19,     0.001,   -21.358,     0.000,     0.000,     0.000,     0.000,   1,1,0
  4186,'99',1,   4,  19,    -0.002,   -56.061,     0.000,     0.000,     0.000,     0.000,   1,1,0
  4196,'99',1,   4,  20,    -0.015,  -112.394,     0.000,     0.000,     0.000,     0.000,   1,1,0
  4197,'99',1,   4,  20,    -0.023,   -10.274,     0.000,     0.000,     0.000,     0.000,   1,1,0
  5013,'99',1,   5,  15,     0.005,   -56.599,     0.000,     0.000,     0.000,     0.000,   1,1,0
  5020,'1 ',1,   5,  12,   -26.546,    17.280,     0.000,     0.000,     0.000,     0.000,   1,1,0
  5024,'99',1,   5,  13,     0.801,     0.000,     0.000,     0.000,     0.000,     0.000,   1,1,0
  5061,'99',1,   5,  14,    -0.003,   -27.883,     0.000,     0.000,     0.000,     0.000,   1,1,0
  5077,'99',1,   5,  16,    -0.005,   -61.075,     0.000,     0.000,     0.000,     0.000,   1,1,0
  5090,'99',1,   5,  16,    -0.002,  -185.145,     0.000,     0.000,     0.000,     0.000,   1,1,0
  5093,'99',1,   5,  17,    -0.119,  -208.029,     0.000,     0.000,     0.000,     0.000,   1,1,0
  5098,'99',1,   5,  17,    -0.059,  -137.770,     0.000,     0.000,     0.000,     0.000,   1,1,0
  5099,'99',1,   5,  17,    -0.008,   -72.944,     0.000,     0.000,     0.000,     0.000,   1,1,0
  5108,'99',1,   5,  17,    -0.069,  -243.221,     0.000,     0.000,     0.000,     0.000,   1,1,0
  5121,'99',1,   5,  15,     0.000,   -31.790,     0.000,     0.000,     0.000,     0.000,   1,1,0
  5139,'99',1,   5,  16,    -0.022,  -102.527,     0.000,     0.000,     0.000,     0.000,   1,1,0
  5161,'99',1,   5,  16,    -0.104,  -104.572,     0.000,     0.000,     0.000,     0.000,   1,1,0
  5170,'1 ',1,   5,  15,   -13.273,     5.087,     0.000,     0.000,     0.000,     0.000,   1,1,0
  5172,'99',1,   5,  12,    -0.094,  -153.128,     0.000,     0.000,     0.000,     0.000,   1,1,0
  5182,'99',1,   5,  13,     0.502,     0.000,     0.000,     0.000,     0.000,     0.000,   1,1,0
  5191,'99',1,   5,  18,     0.022,   -54.544,     0.000,     0.000,     0.000,     0.000,   1,1,0
  5217,'99',1,   5,  17,    -0.115,  -201.189,     0.000,     0.000,     0.000,     0.000,   1,1,0
  5219,'99',1,   5,  14,     0.006,   -30.855,     0.000,     0.000,     0.000,     0.000,   1,1,0
  5264,'99',1,   5,  15,    -0.001,   -92.604,     0.000,     0.000,     0.000,     0.000,   1,1,0
  5289,'99',1,   5,  16,    -0.090,  -211.670,     0.000,     0.000,     0.000,     0.000,   1,1,0
  5316,'99',1,   5,  16,    -0.041,  -163.718,     0.000,     0.000,     0.000,     0.000,   1,1,0
  5339,'99',1,   5,  17,    -0.035,  -108.921,     0.000,     0.000,     0.000,     0.000,   1,1,0
  5342,'1 ',1,   5,  17,    -2.590,    -3.201,     0.000,     0.000,     0.000,     0.000,   1,1,0
  5346,'99',1,   5,  17,    -0.012,  -274.820,     0.000,     0.000,     0.000,     0.000,   1,1,0
  5378,'99',1,   5,  13,     0.000,  -110.724,     0.000,     0.000,     0.000,     0.000,   1,1,0
  5386,'99',1,   5,  16,     0.349,  -168.971,     0.000,     0.000,     0.000,     0.000,   1,1,0
  5411,'99',1,   5,  13,    -0.039,  -181.316,     0.000,     0.000,     0.000,     0.000,   1,1,0
  5421,'99',1,   5,  16,    -0.026,  -175.345,     0.000,     0.000,     0.000,     0.000,   1,1,0
  5422,'99',1,   5,  17,    -0.021,   -71.736,     0.000,     0.000,     0.000,     0.000,   1,1,0
  5440,'99',1,   5,  17,    -0.074,  -145.334,     0.000,     0.000,     0.000,     0.000,   1,1,0
  5478,'99',1,   5,  17,    -0.001,  -126.196,     0.000,     0.000,     0.000,     0.000,   1,1,0
  5482,'99',1,   5,  16,    -0.048,  -179.631,     0.000,     0.000,     0.000,     0.000,   1,1,0
  6001,'99',1,   6,  22,    -0.123,  -131.540,     0.000,     0.000,     0.000,     0.000,   1,1,0
  6012,'99',1,   6,  25,    -0.007,   -32.386,     0.000,     0.000,     0.000,     0.000,   1,1,0
  6024,'99',1,   6,  23,    -0.047,  -148.391,     0.000,     0.000,     0.000,     0.000,   1,1,0
  6025,'99',1,   6,  26,    -0.265,  -251.510,     0.000,     0.000,     0.000,     0.000,   1,1,0
  6041,'1 ',1,   6,  23,   -16.463,   -16.873,     0.000,     0.000,     0.000,     0.000,   1,1,0
  6051,'1 ',1,   6,  26,   -17.220,   -29.220,     0.000,     0.000,     0.000,     0.000,   1,1,0
  6053,'1 ',1,   6,  26,   -17.220,   -29.220,     0.000,     0.000,     0.000,     0.000,   1,1,0
  6054,'1 ',1,   6,  26,   -17.220,   -17.539,     0.000,     0.000,     0.000,     0.000,   1,1,0
  6059,'99',1,   6,  26,     0.734,     0.000,     0.000,     0.000,     0.000,     0.000,   1,1,0
  6082,'1 ',1,   6,  23,   -20.131,   -12.266,     0.000,     0.000,     0.000,     0.000,   1,1,0
  6083,'1 ',1,   6,  23,   -20.131,    -9.949,     0.000,     0.000,     0.000,     0.000,   1,1,0
  6085,'1 ',1,   6,  23,    -0.154,    -0.000,     0.000,     0.000,     0.000,     0.000,   1,1,0
  6086,'1 ',1,   6,  23,    -3.295,    -0.000,     0.000,     0.000,     0.000,     0.000,   1,1,0
  6088,'1 ',1,   6,  23,    -1.164,    -0.000,     0.000,     0.000,     0.000,     0.000,   1,1,0
  6089,'1 ',1,   6,  23,    -1.526,    -0.000,     0.000,     0.000,     0.000,     0.000,   1,1,0
  6090,'1 ',1,   6,  23,    -4.469,    -0.000,     0.000,     0.000,     0.000,     0.000,   1,1,0
  6091,'99',1,   6,  23,    -0.015,   -75.027,     0.000,     0.000,     0.000,     0.000,   1,1,0
  6092,'99',1,   6,  24,    -0.009,   -44.459,     0.000,     0.000,     0.000,     0.000,   1,1,0
  6096,'99',1,   6,  24,    -0.002,   -94.283,     0.000,     0.000,     0.000,     0.000,   1,1,0
  6103,'99',1,   6,  25,    -0.025,   -81.801,     0.000,     0.000,     0.000,     0.000,   1,1,0
  6127,'99',1,   6,  25,     0.118,    -7.153,     0.000,     0.000,     0.000,     0.000,   1,1,0
  6151,'99',1,   6,  25,     0.001,   -78.264,     0.000,     0.000,     0.000,     0.000,   1,1,0
  6158,'99',1,   6,  25,    -0.005,   -69.919,     0.000,     0.000,     0.000,     0.000,   1,1,0
  6177,'99',1,   6,  26,    -0.134,  -288.162,     0.000,     0.000,     0.000,     0.000,   1,1,0
  6207,'99',1,   6,  23,    -0.023,   -74.805,     0.000,     0.000,     0.000,     0.000,   1,1,0
  6221,'99',1,   6,  22,    -0.024,   -99.881,     0.000,     0.000,     0.000,     0.000,   1,1,0
  6229,'99',1,   6,  22,    -0.015,  -125.177,     0.000,     0.000,     0.000,     0.000,   1,1,0
  6266,'1 ',1,   6,  24,    -1.387,    -1.719,     0.000,     0.000,     0.000,     0.000,   1,1,0
  6267,'1 ',1,   6,  24,    -2.220,    -2.727,     0.000,     0.000,     0.000,     0.000,   1,1,0
  6268,'1 ',1,   6,  24,    -1.387,    -1.719,     0.000,     0.000,     0.000,     0.000,   1,1,0
  6269,'1 ',1,   6,  24,    -2.220,    -2.727,     0.000,     0.000,     0.000,     0.000,   1,1,0
  6270,'1 ',1,   6,  24,    -5.549,    -6.817,     0.000,     0.000,     0.000,     0.000,   1,1,0
  6271,'1 ',1,   6,  24,    -3.391,    -4.090,     0.000,     0.000,     0.000,     0.000,   1,1,0
  6272,'1 ',1,   6,  24,    -2.220,    -2.727,     0.000,     0.000,     0.000,     0.000,   1,1,0
  6273,'1 ',1,   6,  24,    -2.220,    -2.727,     0.000,     0.000,     0.000,     0.000,   1,1,0
  6274,'1 ',1,   6,  24,    -2.590,    -3.201,     0.000,     0.000,     0.000,     0.000,   1,1,0
  6286,'99',1,   6,  26,    -0.000,  -106.727,     0.000,     0.000,     0.000,     0.000,   1,1,0
  6320,'99',1,   6,  22,    -0.229,  -224.703,     0.000,     0.000,     0.000,     0.000,   1,1,0
  6331,'99',1,   6,  23,    -0.032,  -154.603,     0.000,     0.000,     0.000,     0.000,   1,1,0
  6356,'99',1,   6,  26,    -0.069,  -198.825,     0.000,     0.000,     0.000,     0.000,   1,1,0
  6358,'99',1,   6,  23,    -0.175,  -138.235,     0.000,     0.000,     0.000,     0.000,   1,1,0
  7028,'99',1,   7,   3,    -0.820,  -446.856,     0.000,     0.000,     0.000,     0.000,   1,1,0
  7031,'1 ',1,   7,   6,    -3.772,    -0.000,     0.000,     0.000,     0.000,     0.000,   1,1,0
  7032,'1 ',1,   7,   6,    -0.972,    -0.000,     0.000,     0.000,     0.000,     0.000,   1,1,0
  7033,'1 ',1,   7,   6,    -0.972,    -0.000,     0.000,     0.000,     0.000,     0.000,   1,1,0
  7075,'99',1,   7,   4,    -0.009,  -362.280,     0.000,     0.000,     0.000,     0.000,   1,1,0
  7089,'99',1,   7,   3,     0.020,  -333.003,     0.000,     0.000,     0.000,     0.000,   1,1,0
  7091,'99',1,   7,   3,    -0.140,  -264.672,     0.000,     0.000,     0.000,     0.000,   1,1,0
  7145,'99',1,   7,   4,    -0.119,  -247.696,     0.000,     0.000,     0.000,     0.000,   1,1,0
  7150,'99',1,   7,   5,    -0.055,   -36.048,     0.000,     0.000,     0.000,     0.000,   1,1,0
  7183,'99',1,   7,   3,    -0.618,  -362.008,     0.000,     0.000,     0.000,     0.000,   1,1,0
  7198,'99',1,   7,   5,    -0.350,  -193.847,     0.000,     0.000,     0.000,     0.000,   1,1,0
  7235,'99',1,   7,   3,    -0.262,  -187.935,     0.000,     0.000,     0.000,     0.000,   1,1,0
  7236,'99',1,   7,   5,    -0.167,  -196.346,     0.000,     0.000,     0.000,     0.000,   1,1,0
  7238,'99',1,   7,   4,    -0.000,   -94.087,     0.000,     0.000,     0.000,     0.000,   1,1,0
  7262,'99',1,   7,   1,    -0.001,   -68.398,     0.000,     0.000,     0.000,     0.000,   1,1,0
  7273,'99',1,   7,   2,    -0.105,  -182.647,     0.000,     0.000,     0.000,     0.000,   1,1,0
  7276,'99',1,   7,   3,     0.010,  -480.740,     0.000,     0.000,     0.000,     0.000,   1,1,0
  7277,'99',1,   7,   6,    -0.000,   -51.137,     0.000,     0.000,     0.000,     0.000,   1,1,0
  7285,'1 ',1,   7,   4,    -2.751,    -0.000,     0.000,     0.000,     0.000,     0.000,   1,1,0
  7286,'1 ',1,   7,   4,    -2.751,    -0.000,     0.000,     0.000,     0.000,     0.000,   1,1,0
  7287,'1 ',1,   7,   4,    -2.751,    -0.000,     0.000,     0.000,     0.000,     0.000,   1,1,0
  7288,'1 ',1,   7,   4,    -2.751,    -0.000,     0.000,     0.000,     0.000,     0.000,   1,1,0
  7289,'1 ',1,   7,   4,    -5.503,    -0.000,     0.000,     0.000,     0.000,     0.000,   1,1,0
  7294,'99',1,   7,   4,    -0.015,   -25.176,     0.000,     0.000,     0.000,     0.000,   1,1,0
  7300,'99',1,   7,   5,    -0.061,  -163.785,     0.000,     0.000,     0.000,     0.000,   1,1,0
  7397,'99',1,   7,   3,    -0.027,  -103.851,     0.000,     0.000,     0.000,     0.000,   1,1,0
  8003,'99',1,   8,   7,     0.004,   -41.899,     0.000,     0.000,     0.000,     0.000,   1,1,0
  8005,'99',1,   8,   8,    -0.001,   -84.202,     0.000,     0.000,     0.000,     0.000,   1,1,0
  8006,'99',1,   8,   8,    -0.007,   -48.399,     0.000,     0.000,     0.000,     0.000,   1,1,0
  8013,'99',1,   8,   8,     0.000,   -51.316,     0.000,     0.000,     0.000,     0.000,   1,1,0
  8016,'99',1,   8,   7,     0.000,   -55.232,     0.000,     0.000,     0.000,     0.000,   1,1,0
  8019,'99',1,   8,   8,    -0.008,  -130.010,     0.000,     0.000,     0.000,     0.000,   1,1,0
  8022,'99',1,   8,   8,    -0.001,   -13.603,     0.000,     0.000,     0.000,     0.000,   1,1,0
...
 0 /End of Load data, Begin Fixed shunt data
 0 /End of Fixed shunt data, Begin Generator data
  1004,'1 ',    76.474,   -30.380,    44.940,   -30.380,1.01000,     0,   253.200, 0.00000E+0, 1.00000E+0, 0.00000E+0, 0.00000E+0,1.00000,1,  100.0,   211.000,    63.300,   1,1.0000,    ,      ,    ,      ,    ,      ,1, 1.0000
  1021,'1 ',    72.309,   -28.730,    42.490,   -28.730,1.00000,     0,   239.400, 0.00000E+0, 1.00000E+0, 0.00000E+0, 0.00000E+0,1.00000,1,  100.0,   199.500,    59.850,   1,1.0000,    ,      ,    ,      ,    ,      ,1, 1.0000
  1023,'1 ',    65.239,    -9.414,    38.340,   -25.920,1.01000,     0,   216.000, 0.00000E+0, 1.00000E+0, 0.00000E+0, 0.00000E+0,1.00000,1,  100.0,   180.000,    54.000,   1,1.0000,    ,      ,    ,      ,    ,      ,1, 1.0000
  1026,'1 ',    45.015,   -17.880,    26.450,   -17.880,1.00000,     0,   149.040, 0.00000E+0, 1.00000E+0, 0.00000E+0, 0.00000E+0,1.00000,1,  100.0,   124.200,    37.260,   1,1.0000,    ,      ,    ,      ,    ,      ,1, 1.0000
  1033,'1 ',   100.757,   -40.030,    59.210,   -40.030,1.00000,     0,   333.600, 0.00000E+0, 1.00000E+0, 0.00000E+0, 0.00000E+0,1.00000,1,  100.0,   278.000,    83.400,   1,1.0000,    ,      ,    ,      ,    ,      ,1, 1.0000
  1035,'1 ',    32.619,   -12.960,    19.170,   -12.960,1.00000,     0,   108.000, 0.00000E+0, 1.00000E+0, 0.00000E+0, 0.00000E+0,1.00000,1,  100.0,    90.000,    27.000,   1,1.0000,    ,      ,    ,      ,    ,      ,1, 1.0000
  1039,'1 ',    53.462,   -16.864,    31.420,   -21.240,1.00000,     0,   177.000, 0.00000E+0, 1.00000E+0, 0.00000E+0, 0.00000E+0,1.00000,1,  100.0,   147.500,    44.250,   1,1.0000,    ,      ,    ,      ,    ,      ,1, 1.0000
  1042,'1 ',    58.908,   -10.371,    25.960,   -17.550,1.00000,     0,   146.280, 0.00000E+0, 1.00000E+0, 0.00000E+0, 0.00000E+0,1.00000,1,  100.0,   121.900,    36.570,   1,1.0000,    ,      ,    ,      ,    ,      ,1, 1.0000
  1048,'1 ',   234.140,    12.596,   165.530,   -36.100,1.00000,     0,   390.240, 0.00000E+0, 1.01700E-1, 0.00000E+0, 0.00000E+0,1.00000,1,  100.0,   325.200,    97.560,   1,1.0000
  1049,'1 ',   234.140,    30.968,   165.530,   -36.100,1.00000,     0,   390.240, 0.00000E+0, 1.34900E-1, 0.00000E+0, 0.00000E+0,1.00000,1,  100.0,   325.200,    97.560,   1,1.0000
  1050,'1 ',     0.000,    -6.604,    45.500,    -9.920,1.00000,     0,   107.280, 0.00000E+0, 2.77700E-1, 0.00000E+0, 0.00000E+0,1.00000,0,  100.0,    89.400,    26.820,   1,1.0000
  1051,'1 ',     0.000,    -4.791,    45.500,    -9.920,1.00000,     0,   107.280, 0.00000E+0, 3.17400E-1, 0.00000E+0, 0.00000E+0,1.00000,0,  100.0,    89.400,    26.820,   1,1.0000
  1052,'1 ',     0.000,    -9.920,    45.500,    -9.920,1.00000,     0,   107.280, 0.00000E+0, 2.78100E-1, 0.00000E+0, 0.00000E+0,1.00000,0,  100.0,    89.400,    26.820,   1,1.0000
  1053,'1 ',   103.700,   -19.850,    91.010,   -19.850,1.00000,     0,   214.560, 0.00000E+0, 1.68700E-1, 0.00000E+0, 0.00000E+0,1.00000,1,  100.0,   178.800,    53.640,   1,1.0000
  1057,'1 ',    57.990,   -17.280,    25.560,   -17.280,1.00000,     0,   144.000, 0.00000E+0, 1.00000E+0, 0.00000E+0, 0.00000E+0,1.00000,1,  100.0,   120.000,    36.000,   1,1.0000,    ,      ,    ,      ,    ,      ,1, 1.0000
  1059,'1 ',     0.000,     0.000,     2.850,    -0.620,1.04000,     0,     6.720, 0.00000E+0, 2.27700E-1, 0.00000E+0, 0.00000E+0,1.00000,0,  100.0,     5.600,     1.680,   1,1.0000
  1060,'1 ',     0.000,     0.000,     1.020,    -0.220,1.04000,     0,     2.400, 0.00000E+0, 1.63000E-1, 0.00000E+0, 0.00000E+0,1.00000,0,  100.0,     2.000,     0.600,   1,1.0000
  1063,'1 ',   143.766,     0.000,     0.000,     0.000,1.01000,     0,   276.000, 0.00000E+0, 1.00000E+0, 0.00000E+0, 0.00000E+0,1.00000,1,  100.0,   230.000,    69.000,   1,1.0000
  1066,'1 ',    51.650,   -10.706,    30.350,   -20.520,1.00000,     0,   171.000, 0.00000E+0, 1.00000E+0, 0.00000E+0, 0.00000E+0,1.00000,1,  100.0,   142.500,    42.750,   1,1.0000,    ,      ,    ,      ,    ,      ,1, 1.0000
  1070,'1 ',    58.174,    24.808,    34.190,   -23.110,1.04000,     0,   192.600, 0.00000E+0, 1.00000E+0, 0.00000E+0, 0.00000E+0,1.00000,1,  100.0,   160.500,    48.150,   1,1.0000,    ,      ,    ,      ,    ,      ,1, 1.0000
  1072,'1 ',   164.140,     7.496,    97.800,   -21.330,1.01000,     0,   230.560, 0.00000E+0, 3.08200E-1, 0.00000E+0, 0.00000E+0,1.00000,1,  100.0,   192.130,    57.640,   1,1.0000
  1073,'1 ',   111.440,     0.987,    97.800,   -21.330,1.01000,     0,   230.560, 0.00000E+0, 1.94800E-1, 0.00000E+0, 0.00000E+0,1.00000,1,  100.0,   192.130,    57.640,   1,1.0000
  1074,'1 ',   111.440,     6.799,    97.800,   -21.330,1.01000,     0,   230.560, 0.00000E+0, 2.09600E-1, 0.00000E+0, 0.00000E+0,1.00000,1,  100.0,   192.130,    57.640,   1,1.0000
  1075,'1 ',   111.440,     7.329,    97.800,   -21.330,1.01000,     0,   230.560, 0.00000E+0, 1.23700E-1, 0.00000E+0, 0.00000E+0,1.00000,1,  100.0,   192.130,    57.640,   1,1.0000
  1076,'1 ',   111.440,    10.749,    97.800,   -21.330,1.01000,     0,   230.560, 0.00000E+0, 1.06600E-1, 0.00000E+0, 0.00000E+0,1.00000,1,  100.0,   192.130,    57.640,   1,1.0000
  1077,'1 ',   111.440,     5.910,    97.800,   -21.330,1.01000,     0,   230.560, 0.00000E+0, 1.53800E-1, 0.00000E+0, 0.00000E+0,1.00000,1,  100.0,   192.130,    57.640,   1,1.0000
  1078,'1 ',     0.000,    16.268,    48.610,   -10.600,1.01000,     0,   114.600, 0.00000E+0, 2.85200E-1, 0.00000E+0, 0.00000E+0,1.00000,0,  100.0,    95.500,    28.650,   1,1.0000
  1079,'1 ',     0.000,   -10.600,    48.610,   -10.600,1.01000,     0,   114.600, 0.00000E+0, 1.72600E-1, 0.00000E+0, 0.00000E+0,1.00000,0,  100.0,    95.500,    28.650,   1,1.0000
  1080,'1 ',     0.000,    13.126,    48.610,   -10.600,1.01000,     0,   114.600, 0.00000E+0, 1.54300E-1, 0.00000E+0, 0.00000E+0,1.00000,0,  100.0,    95.500,    28.650,   1,1.0000
  1081,'1 ',   206.280,    17.866,   145.830,   -31.800,1.01000,     0,   343.800, 0.00000E+0, 1.49600E-1, 0.00000E+0, 0.00000E+0,1.00000,1,  100.0,   286.500,    85.950,   1,1.0000
  1082,'1 ',    54.366,   -21.600,    31.950,   -21.600,1.00000,     0,   180.000, 0.00000E+0, 1.00000E+0, 0.00000E+0, 0.00000E+0,1.00000,1,  100.0,   150.000,    45.000,   1,1.0000,    ,      ,    ,      ,    ,      ,1, 1.0000
  1084,'1 ',    41.859,    24.600,    24.600,   -16.630,1.04000,     0,   138.600, 0.00000E+0, 1.00000E+0, 0.00000E+0, 0.00000E+0,1.00000,1,  100.0,   115.500,    34.650,   1,1.0000,    ,      ,    ,      ,    ,      ,1, 1.0000
  2004,'1 ',   117.540,   -31.943,   199.430,   -43.490,1.02000,     0,   470.160, 0.00000E+0, 1.06400E-1, 0.00000E+0, 0.00000E+0,1.00000,1,  100.0,   391.800,   117.540,   1,1.0000
  2005,'1 ',   117.540,   -27.768,   199.430,   -43.490,1.02000,     0,   470.160, 0.00000E+0, 2.27500E-1, 0.00000E+0, 0.00000E+0,1.00000,1,  100.0,   391.800,   117.540,   1,1.0000
  2006,'1 ',   117.540,   -16.851,   199.430,   -43.490,1.02000,     0,   470.160, 0.00000E+0, 2.00400E-1, 0.00000E+0, 0.00000E+0,1.00000,1,  100.0,   391.800,   117.540,   1,1.0000
  2019,'1 ',    -0.000,   -18.309,    46.430,   -31.390,1.04000,     0,   261.600, 0.00000E+0, 1.00000E+0, 0.00000E+0, 0.00000E+0,1.00000,0,  100.0,   218.000,    65.400,   1,1.0000,    ,      ,    ,      ,    ,      ,1, 1.0000
  2023,'1 ',     0.000,    15.439,    42.420,    -9.250,1.02000,     0,   100.000, 0.00000E+0, 2.94400E-1, 0.00000E+0, 0.00000E+0,1.00000,0,  100.0,    83.330,    25.000,   1,1.0000
  2024,'1 ',    96.670,   -18.500,    84.830,   -18.500,1.02000,     0,   200.000, 0.00000E+0, 1.50800E-1, 0.00000E+0, 0.00000E+0,1.00000,1,  100.0,   166.670,    50.000,   1,1.0000
  2056,'1 ',     0.000,     0.000,     2.800,    -0.730,0.99000,     0,     7.200, 0.00000E+0, 2.49200E-1, 0.00000E+0, 0.00000E+0,1.00000,0,  100.0,     6.000,     1.800,   1,1.0000
  2057,'1 ',   275.526,  -219.390,   335.520,   -87.840,0.99000,     0,   864.000, 0.00000E+0, 1.77000E-1, 0.00000E+0, 0.00000E+0,1.00000,1,  100.0,   720.000,   216.000,   1,1.0000
  2071,'1 ',    33.183,   -21.310,    31.950,   -21.600,1.00000,     0,   180.000, 0.00000E+0, 1.00000E+0, 0.00000E+0, 0.00000E+0,1.00000,1,  100.0,   150.000,    45.000,   1,1.0000,    ,      ,    ,      ,    ,      ,1, 1.0000
  2083,'1 ',     0.000,    10.080,    10.180,    -2.220,1.02000,     0,    24.000, 0.00000E+0, 1.64100E-1, 0.00000E+0, 0.00000E+0,1.00000,0,  100.0,    20.000,     6.000,   1,1.0000
  2084,'1 ',     0.000,     0.000,    10.180,    -2.220,1.02000,     0,    24.000, 0.00000E+0, 2.31200E-1, 0.00000E+0, 0.00000E+0,1.00000,0,  100.0,    20.000,     6.000,   1,1.0000
  2085,'1 ',     0.000,     0.000,    20.360,    -4.440,1.02000,     0,    48.000, 0.00000E+0, 2.26900E-1, 0.00000E+0, 0.00000E+0,1.00000,0,  100.0,    40.000,    12.000,   1,1.0000
  2094,'1 ',    -0.000,    -1.440,     2.130,    -1.440,1.00000,     0,    12.000, 0.00000E+0, 1.00000E+0, 0.00000E+0, 0.00000E+0,1.00000,0,  100.0,    10.000,     3.000,   1,1.0000,    ,      ,    ,      ,    ,      ,1, 1.0000
  2095,'1 ',    -0.000,   -11.450,    16.930,   -11.450,1.00000,     0,    95.400, 0.00000E+0, 1.00000E+0, 0.00000E+0, 0.00000E+0,1.00000,0,  100.0,    79.500,    23.850,   1,1.0000,    ,      ,    ,      ,    ,      ,1, 1.0000
  2100,'1 ',    33.713,   -21.600,    31.950,   -21.600,1.02000,     0,   180.000, 0.00000E+0, 1.00000E+0, 0.00000E+0, 0.00000E+0,1.00000,1,  100.0,   150.000,    45.000,   1,1.0000,    ,      ,    ,      ,    ,      ,1, 1.0000
  2103,'1 ',    80.320,   -29.720,   136.280,   -29.720,1.00000,     0,   321.280, 0.00000E+0, 3.34300E-1, 0.00000E+0, 0.00000E+0,1.00000,1,  100.0,   267.730,    80.320,   1,1.0000
  2104,'1 ',    80.320,   -29.720,   136.280,   -29.720,1.00000,     0,   321.280, 0.00000E+0, 3.14700E-1, 0.00000E+0, 0.00000E+0,1.00000,1,  100.0,   267.730,    80.320,   1,1.0000
  2105,'1 ',    80.320,   -29.720,   136.280,   -29.720,1.00000,     0,   321.280, 0.00000E+0, 1.41600E-1, 0.00000E+0, 0.00000E+0,1.00000,1,  100.0,   267.730,    80.320,   1,1.0000
  2115,'1 ',   133.000,   -20.500,    94.020,   -20.500,1.00000,     0,   221.660, 0.00000E+0, 1.42500E-1, 0.00000E+0, 0.00000E+0,1.00000,1,  100.0,   184.720,    55.410,   1,1.0000
  2116,'1 ',   133.000,   -20.500,    94.020,   -20.500,1.00000,     0,   221.660, 0.00000E+0, 1.86900E-1, 0.00000E+0, 0.00000E+0,1.00000,1,  100.0,   184.720,    55.410,   1,1.0000
  2117,'1 ',   133.000,   -20.500,    94.020,   -20.500,1.00000,     0,   221.660, 0.00000E+0, 3.25400E-1, 0.00000E+0, 0.00000E+0,1.00000,1,  100.0,   184.720,    55.410,   1,1.0000
  2118,'1 ',   133.000,   -20.500,    94.020,   -20.500,1.00000,     0,   221.660, 0.00000E+0, 1.06100E-1, 0.00000E+0, 0.00000E+0,1.00000,1,  100.0,   184.720,    55.410,   1,1.0000
  2119,'1 ',   133.000,   -20.500,    94.020,   -20.500,1.00000,     0,   221.660, 0.00000E+0, 1.36000E-1, 0.00000E+0, 0.00000E+0,1.00000,1,  100.0,   184.720,    55.410,   1,1.0000
  2120,'1 ',   133.000,   -20.500,    94.020,   -20.500,1.01000,     0,   221.660, 0.00000E+0, 2.06800E-1, 0.00000E+0, 0.00000E+0,1.00000,1,  100.0,   184.720,    55.410,   1,1.0000
  3017,'1 ',    61.435,   -11.975,    36.100,   -24.410,1.01000,     0,   203.400, 0.00000E+0, 1.00000E+0, 0.00000E+0, 0.00000E+0,1.00000,1,  100.0,   169.500,    50.850,   1,1.0000,    ,      ,    ,      ,    ,      ,1, 1.0000
  3020,'1 ',    54.366,    -0.116,    31.950,   -21.600,1.03000,     0,   180.000, 0.00000E+0, 1.00000E+0, 0.00000E+0, 0.00000E+0,1.00000,1,  100.0,   150.000,    45.000,   1,1.0000,    ,      ,    ,      ,    ,      ,1, 1.0000
  3028,'1 ',    44.244,    17.203,    42.600,   -28.800,1.04000,     0,   240.000, 0.00000E+0, 1.00000E+0, 0.00000E+0, 0.00000E+0,1.00000,1,  100.0,   200.000,    60.000,   1,1.0000,    ,      ,    ,      ,    ,      ,1, 1.0000
  3034,'1 ',    47.296,     9.951,    27.800,   -18.790,1.03000,     0,   156.600, 0.00000E+0, 1.00000E+0, 0.00000E+0, 0.00000E+0,1.00000,1,  100.0,   130.500,    39.150,   1,1.0000,    ,      ,    ,      ,    ,      ,1, 1.0000
  3039,'1 ',    75.749,    16.123,    44.520,   -30.100,1.04000,     0,   250.800, 0.00000E+0, 1.00000E+0, 0.00000E+0, 0.00000E+0,1.00000,1,  100.0,   209.000,    62.700,   1,1.0000,    ,      ,    ,      ,    ,      ,1, 1.0000
  3043,'1 ',     0.000,     0.000,     0.660,    -0.140,1.04000,     0,     1.560, 0.00000E+0, 2.72800E-1, 0.00000E+0, 0.00000E+0,1.00000,0,  100.0,     1.300,     0.390,   1,1.0000
  3044,'1 ',     0.000,     0.000,    45.500,    -9.920,1.04000,     0,   107.280, 0.00000E+0, 1.70000E-1, 0.00000E+0, 0.00000E+0,1.00000,0,  100.0,    89.400,    26.820,   1,1.0000
  3045,'1 ',   134.100,    13.834,   227.520,   -49.620,1.04000,     0,   536.400, 0.00000E+0, 1.44700E-1, 0.00000E+0, 0.00000E+0,1.00000,1,  100.0,   447.000,   134.100,   1,1.0000
  3048,'1 ',    87.347,     8.288,    51.330,   -34.700,1.04000,     0,   289.200, 0.00000E+0, 1.00000E+0, 0.00000E+0, 0.00000E+0,1.00000,1,  100.0,   241.000,    72.300,   1,1.0000,    ,      ,    ,      ,    ,      ,1, 1.0000
  3055,'1 ',    88.860,    19.948,    52.220,   -35.300,1.04000,     0,   294.200, 0.00000E+0, 1.00000E+0, 0.00000E+0, 0.00000E+0,1.00000,1,  100.0,   245.170,    73.550,   1,1.0000,    ,      ,    ,      ,    ,      ,1, 1.0000
  3056,'1 ',    88.860,    11.485,    52.220,   -35.300,1.04000,     0,   294.200, 0.00000E+0, 1.00000E+0, 0.00000E+0, 0.00000E+0,1.00000,1,  100.0,   245.170,    73.550,   1,1.0000,    ,      ,    ,      ,    ,      ,1, 1.0000
  3057,'1 ',    88.860,    10.831,    52.220,   -35.300,1.04000,     0,   294.200, 0.00000E+0, 1.00000E+0, 0.00000E+0, 0.00000E+0,1.00000,1,  100.0,   245.170,    73.550,   1,1.0000,    ,      ,    ,      ,    ,      ,1, 1.0000
  3060,'1 ',    60.029,     5.894,    35.280,   -23.850,1.04000,     0,   198.750, 0.00000E+0, 1.00000E+0, 0.00000E+0, 0.00000E+0,1.00000,1,  100.0,   165.630,    49.690,   1,1.0000,    ,      ,    ,      ,    ,      ,1, 1.0000
  3061,'1 ',    60.029,     7.484,    35.280,   -23.850,1.04000,     0,   198.750, 0.00000E+0, 1.00000E+0, 0.00000E+0, 0.00000E+0,1.00000,1,  100.0,   165.630,    49.690,   1,1.0000,    ,      ,    ,      ,    ,      ,1, 1.0000
  3062,'1 ',    60.029,    13.052,    35.280,   -23.850,1.04000,     0,   198.750, 0.00000E+0, 1.00000E+0, 0.00000E+0, 0.00000E+0,1.00000,1,  100.0,   165.630,    49.690,   1,1.0000,    ,      ,    ,      ,    ,      ,1, 1.0000
  3063,'1 ',    60.029,     9.218,    35.280,   -23.850,1.04000,     0,   198.750, 0.00000E+0, 1.00000E+0, 0.00000E+0, 0.00000E+0,1.00000,1,  100.0,   165.630,    49.690,   1,1.0000,    ,      ,    ,      ,    ,      ,1, 1.0000
  3068,'1 ',    54.366,    23.483,    31.950,   -21.600,1.04000,     0,   180.000, 0.00000E+0, 1.00000E+0, 0.00000E+0, 0.00000E+0,1.00000,1,  100.0,   150.000,    45.000,   1,1.0000,    ,      ,    ,      ,    ,      ,1, 1.0000
  3071,'1 ',    61.687,   -24.510,    36.250,   -24.510,1.00000,     0,   204.240, 0.00000E+0, 1.00000E+0, 0.00000E+0, 0.00000E+0,1.00000,1,  100.0,   170.200,    51.060,   1,1.0000,    ,      ,    ,      ,    ,      ,1, 1.0000
  3074,'1 ',    36.171,    15.383,    21.260,   -14.370,1.00000,     0,   119.760, 0.00000E+0, 1.00000E+0, 0.00000E+0, 0.00000E+0,1.00000,1,  100.0,    99.800,    29.940,   1,1.0000,    ,      ,    ,      ,    ,      ,1, 1.0000
  3081,'1 ',    90.247,     9.621,    53.040,   -35.860,1.04000,     0,   298.800, 0.00000E+0, 1.00000E+0, 0.00000E+0, 0.00000E+0,1.00000,1,  100.0,   249.000,    74.700,   1,1.0000,    ,      ,    ,      ,    ,      ,1, 1.0000
  3084,'1 ',    84.264,   -28.409,    49.520,   -33.480,1.00000,     0,   279.000, 0.00000E+0, 1.00000E+0, 0.00000E+0, 0.00000E+0,1.00000,1,  100.0,   232.500,    69.750,   1,1.0000,    ,      ,    ,      ,    ,      ,1, 1.0000
  3087,'1 ',    36.244,   -10.800,    15.970,   -10.800,1.00000,     0,    90.000, 0.00000E+0, 1.00000E+0, 0.00000E+0, 0.00000E+0,1.00000,1,  100.0,    75.000,    22.500,   1,1.0000,    ,      ,    ,      ,    ,      ,1, 1.0000
  3092,'1 ',    72.487,    13.056,    42.600,   -28.800,1.04000,     0,   240.000, 0.00000E+0, 1.00000E+0, 0.00000E+0, 0.00000E+0,1.00000,1,  100.0,   200.000,    60.000,   1,1.0000,    ,      ,    ,      ,    ,      ,1, 1.0000
  3095,'1 ',    43.710,     9.803,    25.690,   -17.370,1.04000,     0,   144.720, 0.00000E+0, 1.00000E+0, 0.00000E+0, 0.00000E+0,1.00000,1,  100.0,   120.600,    36.180,   1,1.0000,    ,      ,    ,      ,    ,      ,1, 1.0000
  3098,'1 ',    57.990,     7.633,    34.080,   -23.040,1.04000,     0,   192.000, 0.00000E+0, 1.00000E+0, 0.00000E+0, 0.00000E+0,1.00000,1,  100.0,   160.000,    48.000,   1,1.0000,    ,      ,    ,      ,    ,      ,1, 1.0000
  3106,'1 ',    76.701,   -17.136,    62.477,    -2.690,1.00000,     0,    65.880, 0.00000E+0, 2.92200E-1, 0.00000E+0, 0.00000E+0,1.00000,1,  100.0,   162.800,     0.000,   1,1.0000
  3110,'1 ',    30.445,     7.725,    17.890,   -12.100,1.04000,     0,   100.800, 0.00000E+0, 1.00000E+0, 0.00000E+0, 0.00000E+0,1.00000,1,  100.0,    84.000,    25.200,   1,1.0000,    ,      ,    ,      ,    ,      ,1, 1.0000
  3118,'1 ',    43.492,   -13.521,    25.560,   -17.280,1.00000,     0,   144.000, 0.00000E+0, 1.00000E+0, 0.00000E+0, 0.00000E+0,1.00000,1,  100.0,   120.000,    36.000,   1,1.0000,    ,      ,    ,      ,    ,      ,1, 1.0000
  3122,'1 ',    71.400,   -18.233,    41.960,   -28.370,1.00000,     0,   236.400, 0.00000E+0, 1.00000E+0, 0.00000E+0, 0.00000E+0,1.00000,1,  100.0,   197.000,    59.100,   1,1.0000,    ,      ,    ,      ,    ,      ,1, 1.0000
  3127,'1 ',    48.929,   -19.440,    28.760,   -19.440,1.00000,     0,   162.000, 0.00000E+0, 1.00000E+0, 0.00000E+0, 0.00000E+0,1.00000,1,  100.0,   135.000,    40.500,   1,1.0000,    ,      ,    ,      ,    ,      ,1, 1.0000
  3129,'1 ',    45.851,   -18.220,    26.940,   -18.220,1.00000,     0,   151.800, 0.00000E+0, 1.00000E+0, 0.00000E+0, 0.00000E+0,1.00000,1,  100.0,   126.500,    37.950,   1,1.0000,    ,      ,    ,      ,    ,      ,1, 1.0000
  3131,'1 ',    41.318,    -0.485,    24.280,   -16.420,1.02000,     0,   136.800, 0.00000E+0, 1.00000E+0, 0.00000E+0, 0.00000E+0,1.00000,1,  100.0,   114.000,    34.200,   1,1.0000,    ,      ,    ,      ,    ,      ,1, 1.0000
  3133,'1 ',     0.000,    26.110,    26.110,    -5.690,1.04000,     0,    61.560, 0.00000E+0, 1.04700E-1, 0.00000E+0, 0.00000E+0,1.00000,0,  100.0,    51.300,    15.390,   1,1.0000
  3137,'1 ',    36.679,    21.052,    21.560,   -14.570,1.03000,     0,   121.440, 0.00000E+0, 1.00000E+0, 0.00000E+0, 0.00000E+0,1.00000,1,  100.0,   101.200,    30.360,   1,1.0000,    ,      ,    ,      ,    ,      ,1, 1.0000
  3141,'1 ',    33.161,   -13.180,    19.490,   -13.180,1.00000,     0,   109.800, 0.00000E+0, 1.00000E+0, 0.00000E+0, 0.00000E+0,1.00000,1,  100.0,    91.500,    27.450,   1,1.0000,    ,      ,    ,      ,    ,      ,1, 1.0000
  4010,'1 ',    73.067,    11.210,    42.940,   -29.030,1.03000,     0,   241.920, 0.00000E+0, 1.00000E+0, 0.00000E+0, 0.00000E+0,1.00000,1,  100.0,   201.600,    60.480,   1,1.0000,    ,      ,    ,      ,    ,      ,1, 1.0000
  4026,'1 ',   123.000,    26.037,   191.060,   -50.020,1.03000,     0,   492.000, 0.00000E+0, 3.27700E-1, 0.00000E+0, 0.00000E+0,1.00000,1,  100.0,   410.000,   123.000,   1,1.0000
  4030,'1 ',   259.593,    13.751,   290.040,   -75.930,1.01000,     0,   746.880, 0.00000E+0, 2.79700E-1, 0.00000E+0, 0.00000E+0,1.00000,1,  100.0,   622.400,   186.720,   1,1.0000
  4047,'1 ',    60.332,     5.563,    75.102,    -3.230,1.02000,     0,    79.200, 0.00000E+0, 3.22700E-1, 0.00000E+0, 0.00000E+0,1.00000,1,  100.0,   195.700,     0.000,   1,1.0000
  4050,'1 ',    72.487,   -28.800,    42.600,   -28.800,1.00000,     0,   240.000, 0.00000E+0, 1.00000E+0, 0.00000E+0, 0.00000E+0,1.00000,1,  100.0,   200.000,    60.000,   1,1.0000,    ,      ,    ,      ,    ,      ,1, 1.0000
  4052,'1 ',     0.000,    22.500,    22.500,    -4.910,1.04000,     0,    53.040, 0.00000E+0, 2.85100E-1, 0.00000E+0, 0.00000E+0,1.00000,0,  100.0,    44.200,    13.260,   1,1.0000
...